@<TRIPOS>MOLECULE
*****
 7 0 0 0 0
SMALL
GASTEIGER

@<TRIPOS>ATOM
      1 XX         40.4304   26.1727   92.3100 Du      1  UNL1        0.0000
      2 XX         42.4304   26.1727   90.3100 Du      2  UNL2        0.0000
      3 XX         42.4304   26.1727   92.3100 Du      3  UNL3        0.0000
      4 XX         42.4304   28.1727   90.3100 Du      4  UNL4        0.0000
      5 XX         44.4304   24.1727   88.3100 Du      5  UNL5        0.0000
      6 XX         44.4304   24.1727   90.3100 Du      6  UNL6        0.0000
      7 XX         44.4304   26.1727   90.3100 Du      7  UNL7        0.0000
@<TRIPOS>BOND
