@<TRIPOS>MOLECULE
*****
 26 0 0 0 0
SMALL
GASTEIGER

@<TRIPOS>ATOM
      1 XX         44.4304   32.1727   94.3100 Du      1  UNL1        0.0000
      2 XX         46.4304   32.1727   94.3100 Du      2  UNL2        0.0000
      3 XX         46.4304   34.1727   94.3100 Du      3  UNL3        0.0000
      4 XX         46.4304   34.1727   96.3100 Du      4  UNL4        0.0000
      5 XX         46.4304   36.1727   96.3100 Du      5  UNL5        0.0000
      6 XX         46.4304   38.1727   92.3100 Du      6  UNL6        0.0000
      7 XX         46.4304   38.1727   94.3100 Du      7  UNL7        0.0000
      8 XX         46.4304   38.1727   96.3100 Du      8  UNL8        0.0000
      9 XX         46.4304   40.1727   92.3100 Du      9  UNL9        0.0000
     10 XX         48.4304   34.1727   92.3100 Du     10  UNL10       0.0000
     11 XX         48.4304   34.1727   94.3100 Du     11  UNL11       0.0000
     12 XX         48.4304   34.1727   96.3100 Du     12  UNL12       0.0000
     13 XX         48.4304   36.1727   94.3100 Du     13  UNL13       0.0000
     14 XX         48.4304   36.1727   96.3100 Du     14  UNL14       0.0000
     15 XX         48.4304   38.1727   94.3100 Du     15  UNL15       0.0000
     16 XX         48.4304   40.1727   94.3100 Du     16  UNL16       0.0000
     17 XX         50.4304   34.1727   92.3100 Du     17  UNL17       0.0000
     18 XX         50.4304   34.1727   94.3100 Du     18  UNL18       0.0000
     19 XX         50.4304   36.1727   92.3100 Du     19  UNL19       0.0000
     20 XX         50.4304   36.1727   94.3100 Du     20  UNL20       0.0000
     21 XX         50.4304   36.1727   96.3100 Du     21  UNL21       0.0000
     22 XX         50.4304   38.1727   94.3100 Du     22  UNL22       0.0000
     23 XX         50.4304   40.1727   92.3100 Du     23  UNL23       0.0000
     24 XX         50.4304   40.1727   94.3100 Du     24  UNL24       0.0000
     25 XX         52.4304   36.1727   92.3100 Du     25  UNL25       0.0000
     26 XX         52.4304   38.1727   92.3100 Du     26  UNL26       0.0000
@<TRIPOS>BOND
