@<TRIPOS>MOLECULE
*****
 45 0 0 0 0
SMALL
GASTEIGER

@<TRIPOS>ATOM
      1 XX          9.6117  -31.3000   23.5545 Du      1  UNL1        0.0000
      2 XX          9.6117  -29.3000   23.5545 Du      2  UNL2        0.0000
      3 XX         11.6117  -33.3000   23.5545 Du      3  UNL3        0.0000
      4 XX         11.6117  -31.3000   21.5545 Du      4  UNL4        0.0000
      5 XX         11.6117  -31.3000   23.5545 Du      5  UNL5        0.0000
      6 XX         11.6117  -31.3000   25.5545 Du      6  UNL6        0.0000
      7 XX         11.6117  -29.3000   21.5545 Du      7  UNL7        0.0000
      8 XX         11.6117  -29.3000   23.5545 Du      8  UNL8        0.0000
      9 XX         11.6117  -27.3000   21.5545 Du      9  UNL9        0.0000
     10 XX         11.6117  -27.3000   23.5545 Du     10  UNL10       0.0000
     11 XX         13.6117  -33.3000   21.5545 Du     11  UNL11       0.0000
     12 XX         13.6117  -33.3000   23.5545 Du     12  UNL12       0.0000
     13 XX         13.6117  -33.3000   25.5545 Du     13  UNL13       0.0000
     14 XX         13.6117  -31.3000   19.5545 Du     14  UNL14       0.0000
     15 XX         13.6117  -31.3000   21.5545 Du     15  UNL15       0.0000
     16 XX         13.6117  -31.3000   23.5545 Du     16  UNL16       0.0000
     17 XX         13.6117  -31.3000   25.5545 Du     17  UNL17       0.0000
     18 XX         13.6117  -29.3000   19.5545 Du     18  UNL18       0.0000
     19 XX         13.6117  -29.3000   21.5545 Du     19  UNL19       0.0000
     20 XX         13.6117  -29.3000   23.5545 Du     20  UNL20       0.0000
     21 XX         13.6117  -29.3000   25.5545 Du     21  UNL21       0.0000
     22 XX         13.6117  -27.3000   19.5545 Du     22  UNL22       0.0000
     23 XX         13.6117  -27.3000   21.5545 Du     23  UNL23       0.0000
     24 XX         13.6117  -27.3000   23.5545 Du     24  UNL24       0.0000
     25 XX         13.6117  -27.3000   25.5545 Du     25  UNL25       0.0000
     26 XX         13.6117  -25.3000   21.5545 Du     26  UNL26       0.0000
     27 XX         15.6117  -33.3000   21.5545 Du     27  UNL27       0.0000
     28 XX         15.6117  -33.3000   23.5545 Du     28  UNL28       0.0000
     29 XX         15.6117  -31.3000   19.5545 Du     29  UNL29       0.0000
     30 XX         15.6117  -31.3000   21.5545 Du     30  UNL30       0.0000
     31 XX         15.6117  -31.3000   23.5545 Du     31  UNL31       0.0000
     32 XX         15.6117  -31.3000   25.5545 Du     32  UNL32       0.0000
     33 XX         15.6117  -29.3000   19.5545 Du     33  UNL33       0.0000
     34 XX         15.6117  -29.3000   21.5545 Du     34  UNL34       0.0000
     35 XX         15.6117  -29.3000   23.5545 Du     35  UNL35       0.0000
     36 XX         15.6117  -29.3000   25.5545 Du     36  UNL36       0.0000
     37 XX         15.6117  -27.3000   19.5545 Du     37  UNL37       0.0000
     38 XX         15.6117  -27.3000   21.5545 Du     38  UNL38       0.0000
     39 XX         15.6117  -27.3000   23.5545 Du     39  UNL39       0.0000
     40 XX         17.6117  -33.3000   23.5545 Du     40  UNL40       0.0000
     41 XX         17.6117  -31.3000   21.5545 Du     41  UNL41       0.0000
     42 XX         17.6117  -31.3000   23.5545 Du     42  UNL42       0.0000
     43 XX         17.6117  -29.3000   19.5545 Du     43  UNL43       0.0000
     44 XX         17.6117  -29.3000   21.5545 Du     44  UNL44       0.0000
     45 XX         17.6117  -29.3000   23.5545 Du     45  UNL45       0.0000
@<TRIPOS>BOND
