@<TRIPOS>MOLECULE
*****
 245 0 0 0 0
SMALL
GASTEIGER

@<TRIPOS>ATOM
      1 XX         -8.2014  -12.4537   34.0217 Du      1  UNL1        0.0000
      2 XX         -8.2014  -10.4537   32.0217 Du      2  UNL2        0.0000
      3 XX         -8.2014  -10.4537   34.0217 Du      3  UNL3        0.0000
      4 XX         -8.2014   -8.4537   36.0217 Du      4  UNL4        0.0000
      5 XX         -6.2014  -12.4537   32.0217 Du      5  UNL5        0.0000
      6 XX         -6.2014  -12.4537   34.0217 Du      6  UNL6        0.0000
      7 XX         -6.2014  -10.4537   30.0217 Du      7  UNL7        0.0000
      8 XX         -6.2014  -10.4537   32.0217 Du      8  UNL8        0.0000
      9 XX         -6.2014  -10.4537   34.0217 Du      9  UNL9        0.0000
     10 XX         -6.2014  -10.4537   36.0217 Du     10  UNL10       0.0000
     11 XX         -6.2014   -8.4537   30.0217 Du     11  UNL11       0.0000
     12 XX         -6.2014   -8.4537   32.0217 Du     12  UNL12       0.0000
     13 XX         -6.2014   -8.4537   34.0217 Du     13  UNL13       0.0000
     14 XX         -6.2014   -8.4537   36.0217 Du     14  UNL14       0.0000
     15 XX         -6.2014   -6.4537   32.0217 Du     15  UNL15       0.0000
     16 XX         -6.2014   -4.4537   34.0217 Du     16  UNL16       0.0000
     17 XX         -4.2014  -14.4537   32.0217 Du     17  UNL17       0.0000
     18 XX         -4.2014  -12.4537   30.0217 Du     18  UNL18       0.0000
     19 XX         -4.2014  -12.4537   32.0217 Du     19  UNL19       0.0000
     20 XX         -4.2014  -12.4537   34.0217 Du     20  UNL20       0.0000
     21 XX         -4.2014  -12.4537   36.0217 Du     21  UNL21       0.0000
     22 XX         -4.2014  -10.4537   30.0217 Du     22  UNL22       0.0000
     23 XX         -4.2014  -10.4537   32.0217 Du     23  UNL23       0.0000
     24 XX         -4.2014  -10.4537   34.0217 Du     24  UNL24       0.0000
     25 XX         -4.2014  -10.4537   36.0217 Du     25  UNL25       0.0000
     26 XX         -4.2014   -8.4537   30.0217 Du     26  UNL26       0.0000
     27 XX         -4.2014   -8.4537   32.0217 Du     27  UNL27       0.0000
     28 XX         -4.2014   -8.4537   34.0217 Du     28  UNL28       0.0000
     29 XX         -4.2014   -8.4537   36.0217 Du     29  UNL29       0.0000
     30 XX         -4.2014   -8.4537   38.0217 Du     30  UNL30       0.0000
     31 XX         -4.2014   -6.4537   34.0217 Du     31  UNL31       0.0000
     32 XX         -4.2014   -6.4537   36.0217 Du     32  UNL32       0.0000
     33 XX         -2.2014  -14.4537   32.0217 Du     33  UNL33       0.0000
     34 XX         -2.2014  -12.4537   30.0217 Du     34  UNL34       0.0000
     35 XX         -2.2014  -12.4537   32.0217 Du     35  UNL35       0.0000
     36 XX         -2.2014  -12.4537   34.0217 Du     36  UNL36       0.0000
     37 XX         -2.2014  -12.4537   36.0217 Du     37  UNL37       0.0000
     38 XX         -2.2014  -10.4537   28.0217 Du     38  UNL38       0.0000
     39 XX         -2.2014  -10.4537   30.0217 Du     39  UNL39       0.0000
     40 XX         -2.2014  -10.4537   32.0217 Du     40  UNL40       0.0000
     41 XX         -2.2014  -10.4537   34.0217 Du     41  UNL41       0.0000
     42 XX         -2.2014  -10.4537   36.0217 Du     42  UNL42       0.0000
     43 XX         -2.2014  -10.4537   38.0217 Du     43  UNL43       0.0000
     44 XX         -2.2014   -8.4537   30.0217 Du     44  UNL44       0.0000
     45 XX         -2.2014   -8.4537   32.0217 Du     45  UNL45       0.0000
     46 XX         -2.2014   -8.4537   34.0217 Du     46  UNL46       0.0000
     47 XX         -2.2014   -8.4537   36.0217 Du     47  UNL47       0.0000
     48 XX         -2.2014   -8.4537   38.0217 Du     48  UNL48       0.0000
     49 XX         -2.2014   -8.4537   40.0217 Du     49  UNL49       0.0000
     50 XX         -2.2014   -6.4537   32.0217 Du     50  UNL50       0.0000
     51 XX         -2.2014   -6.4537   34.0217 Du     51  UNL51       0.0000
     52 XX         -2.2014   -6.4537   36.0217 Du     52  UNL52       0.0000
     53 XX         -2.2014   -6.4537   38.0217 Du     53  UNL53       0.0000
     54 XX         -2.2014   -6.4537   40.0217 Du     54  UNL54       0.0000
     55 XX         -2.2014   -6.4537   42.0217 Du     55  UNL55       0.0000
     56 XX         -2.2014   -6.4537   44.0217 Du     56  UNL56       0.0000
     57 XX         -2.2014   -4.4537   34.0217 Du     57  UNL57       0.0000
     58 XX         -2.2014   -4.4537   40.0217 Du     58  UNL58       0.0000
     59 XX         -2.2014   -4.4537   42.0217 Du     59  UNL59       0.0000
     60 XX         -2.2014   -4.4537   44.0217 Du     60  UNL60       0.0000
     61 XX         -2.2014   -2.4537   40.0217 Du     61  UNL61       0.0000
     62 XX         -2.2014   -2.4537   44.0217 Du     62  UNL62       0.0000
     63 XX         -0.2014  -12.4537   30.0217 Du     63  UNL63       0.0000
     64 XX         -0.2014  -12.4537   32.0217 Du     64  UNL64       0.0000
     65 XX         -0.2014  -12.4537   34.0217 Du     65  UNL65       0.0000
     66 XX         -0.2014  -12.4537   36.0217 Du     66  UNL66       0.0000
     67 XX         -0.2014  -10.4537   28.0217 Du     67  UNL67       0.0000
     68 XX         -0.2014  -10.4537   30.0217 Du     68  UNL68       0.0000
     69 XX         -0.2014  -10.4537   32.0217 Du     69  UNL69       0.0000
     70 XX         -0.2014  -10.4537   34.0217 Du     70  UNL70       0.0000
     71 XX         -0.2014  -10.4537   36.0217 Du     71  UNL71       0.0000
     72 XX         -0.2014  -10.4537   38.0217 Du     72  UNL72       0.0000
     73 XX         -0.2014  -10.4537   40.0217 Du     73  UNL73       0.0000
     74 XX         -0.2014   -8.4537   30.0217 Du     74  UNL74       0.0000
     75 XX         -0.2014   -8.4537   32.0217 Du     75  UNL75       0.0000
     76 XX         -0.2014   -8.4537   34.0217 Du     76  UNL76       0.0000
     77 XX         -0.2014   -8.4537   36.0217 Du     77  UNL77       0.0000
     78 XX         -0.2014   -8.4537   38.0217 Du     78  UNL78       0.0000
     79 XX         -0.2014   -8.4537   40.0217 Du     79  UNL79       0.0000
     80 XX         -0.2014   -8.4537   42.0217 Du     80  UNL80       0.0000
     81 XX         -0.2014   -8.4537   44.0217 Du     81  UNL81       0.0000
     82 XX         -0.2014   -6.4537   32.0217 Du     82  UNL82       0.0000
     83 XX         -0.2014   -6.4537   34.0217 Du     83  UNL83       0.0000
     84 XX         -0.2014   -6.4537   36.0217 Du     84  UNL84       0.0000
     85 XX         -0.2014   -6.4537   42.0217 Du     85  UNL85       0.0000
     86 XX         -0.2014   -6.4537   44.0217 Du     86  UNL86       0.0000
     87 XX         -0.2014   -4.4537   34.0217 Du     87  UNL87       0.0000
     88 XX         -0.2014   -4.4537   44.0217 Du     88  UNL88       0.0000
     89 XX          1.7986  -12.4537   30.0217 Du     89  UNL89       0.0000
     90 XX          1.7986  -12.4537   32.0217 Du     90  UNL90       0.0000
     91 XX          1.7986  -12.4537   34.0217 Du     91  UNL91       0.0000
     92 XX          1.7986  -12.4537   46.0217 Du     92  UNL92       0.0000
     93 XX          1.7986  -10.4537   30.0217 Du     93  UNL93       0.0000
     94 XX          1.7986  -10.4537   32.0217 Du     94  UNL94       0.0000
     95 XX          1.7986  -10.4537   34.0217 Du     95  UNL95       0.0000
     96 XX          1.7986  -10.4537   36.0217 Du     96  UNL96       0.0000
     97 XX          1.7986  -10.4537   38.0217 Du     97  UNL97       0.0000
     98 XX          1.7986  -10.4537   40.0217 Du     98  UNL98       0.0000
     99 XX          1.7986  -10.4537   42.0217 Du     99  UNL99       0.0000
    100 XX          1.7986  -10.4537   44.0217 Du    100  UNL100      0.0000
    101 XX          1.7986  -10.4537   46.0217 Du    101  UNL101      0.0000
    102 XX          1.7986  -10.4537   48.0217 Du    102  UNL102      0.0000
    103 XX          1.7986   -8.4537   30.0217 Du    103  UNL103      0.0000
    104 XX          1.7986   -8.4537   32.0217 Du    104  UNL104      0.0000
    105 XX          1.7986   -8.4537   34.0217 Du    105  UNL105      0.0000
    106 XX          1.7986   -8.4537   36.0217 Du    106  UNL106      0.0000
    107 XX          1.7986   -8.4537   42.0217 Du    107  UNL107      0.0000
    108 XX          1.7986   -8.4537   44.0217 Du    108  UNL108      0.0000
    109 XX          1.7986   -8.4537   46.0217 Du    109  UNL109      0.0000
    110 XX          1.7986   -6.4537   32.0217 Du    110  UNL110      0.0000
    111 XX          1.7986   -6.4537   34.0217 Du    111  UNL111      0.0000
    112 XX          1.7986   -6.4537   44.0217 Du    112  UNL112      0.0000
    113 XX          1.7986   -6.4537   46.0217 Du    113  UNL113      0.0000
    114 XX          1.7986   -4.4537   32.0217 Du    114  UNL114      0.0000
    115 XX          1.7986   -4.4537   34.0217 Du    115  UNL115      0.0000
    116 XX          1.7986   -4.4537   44.0217 Du    116  UNL116      0.0000
    117 XX          1.7986   -4.4537   46.0217 Du    117  UNL117      0.0000
    118 XX          1.7986   -2.4537   32.0217 Du    118  UNL118      0.0000
    119 XX          1.7986   -2.4537   44.0217 Du    119  UNL119      0.0000
    120 XX          3.7986  -12.4537   38.0217 Du    120  UNL120      0.0000
    121 XX          3.7986  -12.4537   40.0217 Du    121  UNL121      0.0000
    122 XX          3.7986  -12.4537   42.0217 Du    122  UNL122      0.0000
    123 XX          3.7986  -12.4537   44.0217 Du    123  UNL123      0.0000
    124 XX          3.7986  -12.4537   46.0217 Du    124  UNL124      0.0000
    125 XX          3.7986  -10.4537   32.0217 Du    125  UNL125      0.0000
    126 XX          3.7986  -10.4537   34.0217 Du    126  UNL126      0.0000
    127 XX          3.7986  -10.4537   36.0217 Du    127  UNL127      0.0000
    128 XX          3.7986  -10.4537   38.0217 Du    128  UNL128      0.0000
    129 XX          3.7986  -10.4537   42.0217 Du    129  UNL129      0.0000
    130 XX          3.7986  -10.4537   44.0217 Du    130  UNL130      0.0000
    131 XX          3.7986  -10.4537   46.0217 Du    131  UNL131      0.0000
    132 XX          3.7986  -10.4537   48.0217 Du    132  UNL132      0.0000
    133 XX          3.7986   -8.4537   32.0217 Du    133  UNL133      0.0000
    134 XX          3.7986   -8.4537   34.0217 Du    134  UNL134      0.0000
    135 XX          3.7986   -8.4537   36.0217 Du    135  UNL135      0.0000
    136 XX          3.7986   -8.4537   44.0217 Du    136  UNL136      0.0000
    137 XX          3.7986   -8.4537   46.0217 Du    137  UNL137      0.0000
    138 XX          3.7986   -8.4537   48.0217 Du    138  UNL138      0.0000
    139 XX          3.7986   -6.4537   34.0217 Du    139  UNL139      0.0000
    140 XX          3.7986   -6.4537   36.0217 Du    140  UNL140      0.0000
    141 XX          3.7986   -6.4537   46.0217 Du    141  UNL141      0.0000
    142 XX          3.7986   -6.4537   48.0217 Du    142  UNL142      0.0000
    143 XX          3.7986   -4.4537   34.0217 Du    143  UNL143      0.0000
    144 XX          3.7986   -4.4537   36.0217 Du    144  UNL144      0.0000
    145 XX          3.7986   -4.4537   38.0217 Du    145  UNL145      0.0000
    146 XX          3.7986   -4.4537   44.0217 Du    146  UNL146      0.0000
    147 XX          3.7986   -4.4537   46.0217 Du    147  UNL147      0.0000
    148 XX          3.7986   -4.4537   48.0217 Du    148  UNL148      0.0000
    149 XX          3.7986   -2.4537   34.0217 Du    149  UNL149      0.0000
    150 XX          5.7986  -14.4537   44.0217 Du    150  UNL150      0.0000
    151 XX          5.7986  -12.4537   34.0217 Du    151  UNL151      0.0000
    152 XX          5.7986  -12.4537   36.0217 Du    152  UNL152      0.0000
    153 XX          5.7986  -12.4537   38.0217 Du    153  UNL153      0.0000
    154 XX          5.7986  -12.4537   40.0217 Du    154  UNL154      0.0000
    155 XX          5.7986  -12.4537   42.0217 Du    155  UNL155      0.0000
    156 XX          5.7986  -12.4537   44.0217 Du    156  UNL156      0.0000
    157 XX          5.7986  -12.4537   46.0217 Du    157  UNL157      0.0000
    158 XX          5.7986  -12.4537   48.0217 Du    158  UNL158      0.0000
    159 XX          5.7986  -10.4537   34.0217 Du    159  UNL159      0.0000
    160 XX          5.7986  -10.4537   36.0217 Du    160  UNL160      0.0000
    161 XX          5.7986  -10.4537   38.0217 Du    161  UNL161      0.0000
    162 XX          5.7986  -10.4537   42.0217 Du    162  UNL162      0.0000
    163 XX          5.7986  -10.4537   44.0217 Du    163  UNL163      0.0000
    164 XX          5.7986  -10.4537   46.0217 Du    164  UNL164      0.0000
    165 XX          5.7986  -10.4537   48.0217 Du    165  UNL165      0.0000
    166 XX          5.7986  -10.4537   50.0217 Du    166  UNL166      0.0000
    167 XX          5.7986   -8.4537   34.0217 Du    167  UNL167      0.0000
    168 XX          5.7986   -8.4537   36.0217 Du    168  UNL168      0.0000
    169 XX          5.7986   -8.4537   46.0217 Du    169  UNL169      0.0000
    170 XX          5.7986   -8.4537   48.0217 Du    170  UNL170      0.0000
    171 XX          5.7986   -6.4537   36.0217 Du    171  UNL171      0.0000
    172 XX          5.7986   -6.4537   38.0217 Du    172  UNL172      0.0000
    173 XX          5.7986   -6.4537   48.0217 Du    173  UNL173      0.0000
    174 XX          5.7986   -4.4537   36.0217 Du    174  UNL174      0.0000
    175 XX          5.7986   -4.4537   38.0217 Du    175  UNL175      0.0000
    176 XX          5.7986   -4.4537   40.0217 Du    176  UNL176      0.0000
    177 XX          5.7986   -4.4537   48.0217 Du    177  UNL177      0.0000
    178 XX          5.7986   -4.4537   50.0217 Du    178  UNL178      0.0000
    179 XX          5.7986   -2.4537   38.0217 Du    179  UNL179      0.0000
    180 XX          5.7986   -2.4537   48.0217 Du    180  UNL180      0.0000
    181 XX          7.7986  -12.4537   34.0217 Du    181  UNL181      0.0000
    182 XX          7.7986  -12.4537   36.0217 Du    182  UNL182      0.0000
    183 XX          7.7986  -12.4537   38.0217 Du    183  UNL183      0.0000
    184 XX          7.7986  -12.4537   40.0217 Du    184  UNL184      0.0000
    185 XX          7.7986  -12.4537   44.0217 Du    185  UNL185      0.0000
    186 XX          7.7986  -12.4537   46.0217 Du    186  UNL186      0.0000
    187 XX          7.7986  -12.4537   48.0217 Du    187  UNL187      0.0000
    188 XX          7.7986  -10.4537   34.0217 Du    188  UNL188      0.0000
    189 XX          7.7986  -10.4537   36.0217 Du    189  UNL189      0.0000
    190 XX          7.7986  -10.4537   38.0217 Du    190  UNL190      0.0000
    191 XX          7.7986  -10.4537   40.0217 Du    191  UNL191      0.0000
    192 XX          7.7986  -10.4537   42.0217 Du    192  UNL192      0.0000
    193 XX          7.7986  -10.4537   44.0217 Du    193  UNL193      0.0000
    194 XX          7.7986  -10.4537   46.0217 Du    194  UNL194      0.0000
    195 XX          7.7986  -10.4537   48.0217 Du    195  UNL195      0.0000
    196 XX          7.7986   -8.4537   34.0217 Du    196  UNL196      0.0000
    197 XX          7.7986   -8.4537   36.0217 Du    197  UNL197      0.0000
    198 XX          7.7986   -8.4537   38.0217 Du    198  UNL198      0.0000
    199 XX          7.7986   -8.4537   42.0217 Du    199  UNL199      0.0000
    200 XX          7.7986   -8.4537   44.0217 Du    200  UNL200      0.0000
    201 XX          7.7986   -8.4537   48.0217 Du    201  UNL201      0.0000
    202 XX          7.7986   -6.4537   36.0217 Du    202  UNL202      0.0000
    203 XX          7.7986   -6.4537   38.0217 Du    203  UNL203      0.0000
    204 XX          7.7986   -6.4537   40.0217 Du    204  UNL204      0.0000
    205 XX          7.7986   -6.4537   42.0217 Du    205  UNL205      0.0000
    206 XX          7.7986   -6.4537   50.0217 Du    206  UNL206      0.0000
    207 XX          7.7986   -4.4537   40.0217 Du    207  UNL207      0.0000
    208 XX          7.7986   -4.4537   42.0217 Du    208  UNL208      0.0000
    209 XX          7.7986   -2.4537   38.0217 Du    209  UNL209      0.0000
    210 XX          9.7986  -12.4537   46.0217 Du    210  UNL210      0.0000
    211 XX          9.7986  -12.4537   48.0217 Du    211  UNL211      0.0000
    212 XX          9.7986  -10.4537   36.0217 Du    212  UNL212      0.0000
    213 XX          9.7986  -10.4537   44.0217 Du    213  UNL213      0.0000
    214 XX          9.7986  -10.4537   46.0217 Du    214  UNL214      0.0000
    215 XX          9.7986  -10.4537   48.0217 Du    215  UNL215      0.0000
    216 XX          9.7986  -10.4537   50.0217 Du    216  UNL216      0.0000
    217 XX          9.7986   -8.4537   36.0217 Du    217  UNL217      0.0000
    218 XX          9.7986   -8.4537   38.0217 Du    218  UNL218      0.0000
    219 XX          9.7986   -8.4537   40.0217 Du    219  UNL219      0.0000
    220 XX          9.7986   -8.4537   42.0217 Du    220  UNL220      0.0000
    221 XX          9.7986   -8.4537   44.0217 Du    221  UNL221      0.0000
    222 XX          9.7986   -8.4537   46.0217 Du    222  UNL222      0.0000
    223 XX          9.7986   -8.4537   48.0217 Du    223  UNL223      0.0000
    224 XX          9.7986   -8.4537   50.0217 Du    224  UNL224      0.0000
    225 XX          9.7986   -6.4537   42.0217 Du    225  UNL225      0.0000
    226 XX          9.7986   -6.4537   44.0217 Du    226  UNL226      0.0000
    227 XX          9.7986   -6.4537   48.0217 Du    227  UNL227      0.0000
    228 XX          9.7986   -4.4537   42.0217 Du    228  UNL228      0.0000
    229 XX          9.7986   -4.4537   44.0217 Du    229  UNL229      0.0000
    230 XX          9.7986   -4.4537   48.0217 Du    230  UNL230      0.0000
    231 XX          9.7986   -4.4537   50.0217 Du    231  UNL231      0.0000
    232 XX          9.7986   -2.4537   42.0217 Du    232  UNL232      0.0000
    233 XX          9.7986   -2.4537   50.0217 Du    233  UNL233      0.0000
    234 XX         11.7986  -10.4537   46.0217 Du    234  UNL234      0.0000
    235 XX         11.7986  -10.4537   48.0217 Du    235  UNL235      0.0000
    236 XX         11.7986   -8.4537   46.0217 Du    236  UNL236      0.0000
    237 XX         11.7986   -8.4537   48.0217 Du    237  UNL237      0.0000
    238 XX         11.7986   -6.4537   44.0217 Du    238  UNL238      0.0000
    239 XX         11.7986   -6.4537   46.0217 Du    239  UNL239      0.0000
    240 XX         11.7986   -6.4537   48.0217 Du    240  UNL240      0.0000
    241 XX         11.7986   -4.4537   46.0217 Du    241  UNL241      0.0000
    242 XX         11.7986   -4.4537   48.0217 Du    242  UNL242      0.0000
    243 XX         11.7986   -4.4537   50.0217 Du    243  UNL243      0.0000
    244 XX         11.7986   -2.4537   44.0217 Du    244  UNL244      0.0000
    245 XX         13.7986   -4.4537   48.0217 Du    245  UNL245      0.0000
@<TRIPOS>BOND
