@<TRIPOS>MOLECULE
*****
 7 0 0 0 0
SMALL
GASTEIGER

@<TRIPOS>ATOM
      1 XX         -0.2014  -28.4537   48.0217 Du      1  UNL1        0.0000
      2 XX         -0.2014  -24.4537   50.0217 Du      2  UNL2        0.0000
      3 XX         -0.2014  -24.4537   52.0217 Du      3  UNL3        0.0000
      4 XX          1.7986  -26.4537   50.0217 Du      4  UNL4        0.0000
      5 XX          1.7986  -24.4537   52.0217 Du      5  UNL5        0.0000
      6 XX          1.7986  -22.4537   54.0217 Du      6  UNL6        0.0000
      7 XX          3.7986  -24.4537   50.0217 Du      7  UNL7        0.0000
@<TRIPOS>BOND
