@<TRIPOS>MOLECULE
*****
 151 0 0 0 0
SMALL
GASTEIGER

@<TRIPOS>ATOM
      1 XX         33.1440   31.3369   21.2417 Du      1  UNL1        0.0000
      2 XX         33.1440   33.3369   21.2417 Du      2  UNL2        0.0000
      3 XX         33.1440   35.3369   21.2417 Du      3  UNL3        0.0000
      4 XX         33.1440   37.3369   21.2417 Du      4  UNL4        0.0000
      5 XX         35.1440   29.3369   19.2417 Du      5  UNL5        0.0000
      6 XX         35.1440   29.3369   21.2417 Du      6  UNL6        0.0000
      7 XX         35.1440   31.3369   19.2417 Du      7  UNL7        0.0000
      8 XX         35.1440   31.3369   21.2417 Du      8  UNL8        0.0000
      9 XX         35.1440   31.3369   23.2417 Du      9  UNL9        0.0000
     10 XX         35.1440   33.3369   17.2417 Du     10  UNL10       0.0000
     11 XX         35.1440   33.3369   19.2417 Du     11  UNL11       0.0000
     12 XX         35.1440   33.3369   21.2417 Du     12  UNL12       0.0000
     13 XX         35.1440   33.3369   23.2417 Du     13  UNL13       0.0000
     14 XX         35.1440   35.3369   19.2417 Du     14  UNL14       0.0000
     15 XX         35.1440   35.3369   21.2417 Du     15  UNL15       0.0000
     16 XX         35.1440   35.3369   23.2417 Du     16  UNL16       0.0000
     17 XX         35.1440   37.3369   21.2417 Du     17  UNL17       0.0000
     18 XX         37.1440   29.3369   19.2417 Du     18  UNL18       0.0000
     19 XX         37.1440   29.3369   21.2417 Du     19  UNL19       0.0000
     20 XX         37.1440   31.3369   17.2417 Du     20  UNL20       0.0000
     21 XX         37.1440   31.3369   19.2417 Du     21  UNL21       0.0000
     22 XX         37.1440   31.3369   21.2417 Du     22  UNL22       0.0000
     23 XX         37.1440   31.3369   23.2417 Du     23  UNL23       0.0000
     24 XX         37.1440   31.3369   25.2417 Du     24  UNL24       0.0000
     25 XX         37.1440   33.3369   13.2417 Du     25  UNL25       0.0000
     26 XX         37.1440   33.3369   15.2417 Du     26  UNL26       0.0000
     27 XX         37.1440   33.3369   17.2417 Du     27  UNL27       0.0000
     28 XX         37.1440   33.3369   19.2417 Du     28  UNL28       0.0000
     29 XX         37.1440   33.3369   21.2417 Du     29  UNL29       0.0000
     30 XX         37.1440   33.3369   23.2417 Du     30  UNL30       0.0000
     31 XX         37.1440   35.3369   19.2417 Du     31  UNL31       0.0000
     32 XX         37.1440   35.3369   21.2417 Du     32  UNL32       0.0000
     33 XX         37.1440   35.3369   23.2417 Du     33  UNL33       0.0000
     34 XX         37.1440   37.3369   21.2417 Du     34  UNL34       0.0000
     35 XX         37.1440   37.3369   23.2417 Du     35  UNL35       0.0000
     36 XX         39.1440   29.3369   23.2417 Du     36  UNL36       0.0000
     37 XX         39.1440   31.3369   13.2417 Du     37  UNL37       0.0000
     38 XX         39.1440   31.3369   15.2417 Du     38  UNL38       0.0000
     39 XX         39.1440   31.3369   17.2417 Du     39  UNL39       0.0000
     40 XX         39.1440   31.3369   19.2417 Du     40  UNL40       0.0000
     41 XX         39.1440   31.3369   21.2417 Du     41  UNL41       0.0000
     42 XX         39.1440   31.3369   23.2417 Du     42  UNL42       0.0000
     43 XX         39.1440   33.3369   13.2417 Du     43  UNL43       0.0000
     44 XX         39.1440   33.3369   15.2417 Du     44  UNL44       0.0000
     45 XX         39.1440   33.3369   17.2417 Du     45  UNL45       0.0000
     46 XX         39.1440   33.3369   19.2417 Du     46  UNL46       0.0000
     47 XX         39.1440   33.3369   21.2417 Du     47  UNL47       0.0000
     48 XX         39.1440   33.3369   23.2417 Du     48  UNL48       0.0000
     49 XX         39.1440   33.3369   25.2417 Du     49  UNL49       0.0000
     50 XX         39.1440   35.3369   13.2417 Du     50  UNL50       0.0000
     51 XX         39.1440   35.3369   15.2417 Du     51  UNL51       0.0000
     52 XX         39.1440   35.3369   17.2417 Du     52  UNL52       0.0000
     53 XX         39.1440   35.3369   19.2417 Du     53  UNL53       0.0000
     54 XX         39.1440   35.3369   21.2417 Du     54  UNL54       0.0000
     55 XX         39.1440   35.3369   23.2417 Du     55  UNL55       0.0000
     56 XX         39.1440   35.3369   25.2417 Du     56  UNL56       0.0000
     57 XX         39.1440   37.3369   19.2417 Du     57  UNL57       0.0000
     58 XX         39.1440   37.3369   21.2417 Du     58  UNL58       0.0000
     59 XX         39.1440   37.3369   23.2417 Du     59  UNL59       0.0000
     60 XX         39.1440   39.3369   21.2417 Du     60  UNL60       0.0000
     61 XX         39.1440   41.3369   17.2417 Du     61  UNL61       0.0000
     62 XX         39.1440   41.3369   19.2417 Du     62  UNL62       0.0000
     63 XX         39.1440   43.3369   17.2417 Du     63  UNL63       0.0000
     64 XX         39.1440   43.3369   19.2417 Du     64  UNL64       0.0000
     65 XX         41.1440   29.3369   15.2417 Du     65  UNL65       0.0000
     66 XX         41.1440   31.3369   11.2417 Du     66  UNL66       0.0000
     67 XX         41.1440   31.3369   13.2417 Du     67  UNL67       0.0000
     68 XX         41.1440   31.3369   19.2417 Du     68  UNL68       0.0000
     69 XX         41.1440   31.3369   21.2417 Du     69  UNL69       0.0000
     70 XX         41.1440   31.3369   23.2417 Du     70  UNL70       0.0000
     71 XX         41.1440   33.3369   11.2417 Du     71  UNL71       0.0000
     72 XX         41.1440   33.3369   13.2417 Du     72  UNL72       0.0000
     73 XX         41.1440   33.3369   19.2417 Du     73  UNL73       0.0000
     74 XX         41.1440   33.3369   21.2417 Du     74  UNL74       0.0000
     75 XX         41.1440   33.3369   23.2417 Du     75  UNL75       0.0000
     76 XX         41.1440   35.3369   11.2417 Du     76  UNL76       0.0000
     77 XX         41.1440   35.3369   13.2417 Du     77  UNL77       0.0000
     78 XX         41.1440   35.3369   15.2417 Du     78  UNL78       0.0000
     79 XX         41.1440   35.3369   23.2417 Du     79  UNL79       0.0000
     80 XX         41.1440   37.3369   11.2417 Du     80  UNL80       0.0000
     81 XX         41.1440   37.3369   13.2417 Du     81  UNL81       0.0000
     82 XX         41.1440   37.3369   15.2417 Du     82  UNL82       0.0000
     83 XX         41.1440   37.3369   17.2417 Du     83  UNL83       0.0000
     84 XX         41.1440   37.3369   19.2417 Du     84  UNL84       0.0000
     85 XX         41.1440   39.3369   15.2417 Du     85  UNL85       0.0000
     86 XX         41.1440   39.3369   17.2417 Du     86  UNL86       0.0000
     87 XX         41.1440   39.3369   19.2417 Du     87  UNL87       0.0000
     88 XX         41.1440   39.3369   21.2417 Du     88  UNL88       0.0000
     89 XX         41.1440   41.3369   15.2417 Du     89  UNL89       0.0000
     90 XX         41.1440   41.3369   17.2417 Du     90  UNL90       0.0000
     91 XX         41.1440   43.3369   17.2417 Du     91  UNL91       0.0000
     92 XX         41.1440   43.3369   19.2417 Du     92  UNL92       0.0000
     93 XX         41.1440   45.3369   19.2417 Du     93  UNL93       0.0000
     94 XX         43.1440   29.3369    7.2417 Du     94  UNL94       0.0000
     95 XX         43.1440   29.3369   11.2417 Du     95  UNL95       0.0000
     96 XX         43.1440   31.3369    9.2417 Du     96  UNL96       0.0000
     97 XX         43.1440   31.3369   11.2417 Du     97  UNL97       0.0000
     98 XX         43.1440   33.3369    9.2417 Du     98  UNL98       0.0000
     99 XX         43.1440   33.3369   11.2417 Du     99  UNL99       0.0000
    100 XX         43.1440   33.3369   23.2417 Du    100  UNL100      0.0000
    101 XX         43.1440   35.3369    9.2417 Du    101  UNL101      0.0000
    102 XX         43.1440   35.3369   11.2417 Du    102  UNL102      0.0000
    103 XX         43.1440   35.3369   13.2417 Du    103  UNL103      0.0000
    104 XX         43.1440   37.3369   11.2417 Du    104  UNL104      0.0000
    105 XX         43.1440   41.3369   15.2417 Du    105  UNL105      0.0000
    106 XX         43.1440   43.3369   17.2417 Du    106  UNL106      0.0000
    107 XX         43.1440   43.3369   21.2417 Du    107  UNL107      0.0000
    108 XX         43.1440   45.3369   17.2417 Du    108  UNL108      0.0000
    109 XX         43.1440   45.3369   19.2417 Du    109  UNL109      0.0000
    110 XX         45.1440   29.3369    7.2417 Du    110  UNL110      0.0000
    111 XX         45.1440   31.3369    3.2417 Du    111  UNL111      0.0000
    112 XX         45.1440   33.3369    9.2417 Du    112  UNL112      0.0000
    113 XX         45.1440   43.3369   17.2417 Du    113  UNL113      0.0000
    114 XX         45.1440   43.3369   21.2417 Du    114  UNL114      0.0000
    115 XX         45.1440   45.3369   17.2417 Du    115  UNL115      0.0000
    116 XX         45.1440   45.3369   19.2417 Du    116  UNL116      0.0000
    117 XX         47.1440   27.3369    3.2417 Du    117  UNL117      0.0000
    118 XX         47.1440   29.3369    3.2417 Du    118  UNL118      0.0000
    119 XX         47.1440   29.3369    5.2417 Du    119  UNL119      0.0000
    120 XX         47.1440   31.3369    1.2417 Du    120  UNL120      0.0000
    121 XX         47.1440   31.3369    3.2417 Du    121  UNL121      0.0000
    122 XX         47.1440   33.3369   -2.7583 Du    122  UNL122      0.0000
    123 XX         47.1440   33.3369   -0.7583 Du    123  UNL123      0.0000
    124 XX         47.1440   33.3369    1.2417 Du    124  UNL124      0.0000
    125 XX         47.1440   33.3369    3.2417 Du    125  UNL125      0.0000
    126 XX         47.1440   35.3369   -0.7583 Du    126  UNL126      0.0000
    127 XX         47.1440   43.3369   17.2417 Du    127  UNL127      0.0000
    128 XX         47.1440   43.3369   19.2417 Du    128  UNL128      0.0000
    129 XX         47.1440   45.3369   17.2417 Du    129  UNL129      0.0000
    130 XX         47.1440   45.3369   19.2417 Du    130  UNL130      0.0000
    131 XX         49.1440   27.3369    3.2417 Du    131  UNL131      0.0000
    132 XX         49.1440   29.3369   -6.7583 Du    132  UNL132      0.0000
    133 XX         49.1440   29.3369   -4.7583 Du    133  UNL133      0.0000
    134 XX         49.1440   29.3369   -2.7583 Du    134  UNL134      0.0000
    135 XX         49.1440   29.3369   -0.7583 Du    135  UNL135      0.0000
    136 XX         49.1440   29.3369    1.2417 Du    136  UNL136      0.0000
    137 XX         49.1440   29.3369    3.2417 Du    137  UNL137      0.0000
    138 XX         49.1440   31.3369   -4.7583 Du    138  UNL138      0.0000
    139 XX         49.1440   31.3369   -2.7583 Du    139  UNL139      0.0000
    140 XX         49.1440   31.3369   -0.7583 Du    140  UNL140      0.0000
    141 XX         49.1440   31.3369    1.2417 Du    141  UNL141      0.0000
    142 XX         49.1440   33.3369   -4.7583 Du    142  UNL142      0.0000
    143 XX         49.1440   33.3369   -2.7583 Du    143  UNL143      0.0000
    144 XX         49.1440   33.3369   -0.7583 Du    144  UNL144      0.0000
    145 XX         49.1440   35.3369   -0.7583 Du    145  UNL145      0.0000
    146 XX         49.1440   35.3369    1.2417 Du    146  UNL146      0.0000
    147 XX         51.1440   29.3369   -6.7583 Du    147  UNL147      0.0000
    148 XX         51.1440   29.3369    1.2417 Du    148  UNL148      0.0000
    149 XX         51.1440   31.3369   -8.7583 Du    149  UNL149      0.0000
    150 XX         51.1440   31.3369   -6.7583 Du    150  UNL150      0.0000
    151 XX         51.1440   31.3369   -4.7583 Du    151  UNL151      0.0000
@<TRIPOS>BOND
