@<TRIPOS>MOLECULE
*****
 54 0 0 0 0
SMALL
GASTEIGER

@<TRIPOS>ATOM
      1 XX        -12.9969    2.4205   43.8944 Du      1  UNL1        0.0000
      2 XX        -12.9969    2.4205   45.8944 Du      2  UNL2        0.0000
      3 XX        -12.9969    4.4205   45.8944 Du      3  UNL3        0.0000
      4 XX        -12.9969    4.4205   47.8944 Du      4  UNL4        0.0000
      5 XX        -10.9969    4.4205   43.8944 Du      5  UNL5        0.0000
      6 XX        -10.9969    4.4205   45.8944 Du      6  UNL6        0.0000
      7 XX        -10.9969    6.4205   41.8944 Du      7  UNL7        0.0000
      8 XX        -10.9969    6.4205   43.8944 Du      8  UNL8        0.0000
      9 XX        -10.9969    6.4205   45.8944 Du      9  UNL9        0.0000
     10 XX        -10.9969    6.4205   47.8944 Du     10  UNL10       0.0000
     11 XX        -10.9969    6.4205   49.8944 Du     11  UNL11       0.0000
     12 XX        -10.9969    8.4205   41.8944 Du     12  UNL12       0.0000
     13 XX        -10.9969    8.4205   43.8944 Du     13  UNL13       0.0000
     14 XX        -10.9969    8.4205   45.8944 Du     14  UNL14       0.0000
     15 XX        -10.9969    8.4205   47.8944 Du     15  UNL15       0.0000
     16 XX        -10.9969   10.4205   43.8944 Du     16  UNL16       0.0000
     17 XX        -10.9969   10.4205   45.8944 Du     17  UNL17       0.0000
     18 XX         -8.9969    2.4205   45.8944 Du     18  UNL18       0.0000
     19 XX         -8.9969    4.4205   43.8944 Du     19  UNL19       0.0000
     20 XX         -8.9969    4.4205   45.8944 Du     20  UNL20       0.0000
     21 XX         -8.9969    4.4205   47.8944 Du     21  UNL21       0.0000
     22 XX         -8.9969    4.4205   49.8944 Du     22  UNL22       0.0000
     23 XX         -8.9969    6.4205   41.8944 Du     23  UNL23       0.0000
     24 XX         -8.9969    6.4205   43.8944 Du     24  UNL24       0.0000
     25 XX         -8.9969    6.4205   45.8944 Du     25  UNL25       0.0000
     26 XX         -8.9969    6.4205   47.8944 Du     26  UNL26       0.0000
     27 XX         -8.9969    8.4205   41.8944 Du     27  UNL27       0.0000
     28 XX         -8.9969    8.4205   43.8944 Du     28  UNL28       0.0000
     29 XX         -8.9969    8.4205   45.8944 Du     29  UNL29       0.0000
     30 XX         -8.9969    8.4205   47.8944 Du     30  UNL30       0.0000
     31 XX         -8.9969   10.4205   43.8944 Du     31  UNL31       0.0000
     32 XX         -8.9969   10.4205   45.8944 Du     32  UNL32       0.0000
     33 XX         -8.9969   10.4205   47.8944 Du     33  UNL33       0.0000
     34 XX         -8.9969   12.4205   45.8944 Du     34  UNL34       0.0000
     35 XX         -6.9969    4.4205   45.8944 Du     35  UNL35       0.0000
     36 XX         -6.9969    4.4205   47.8944 Du     36  UNL36       0.0000
     37 XX         -6.9969    6.4205   43.8944 Du     37  UNL37       0.0000
     38 XX         -6.9969    6.4205   45.8944 Du     38  UNL38       0.0000
     39 XX         -6.9969    6.4205   47.8944 Du     39  UNL39       0.0000
     40 XX         -6.9969    8.4205   41.8944 Du     40  UNL40       0.0000
     41 XX         -6.9969    8.4205   43.8944 Du     41  UNL41       0.0000
     42 XX         -6.9969    8.4205   45.8944 Du     42  UNL42       0.0000
     43 XX         -6.9969    8.4205   47.8944 Du     43  UNL43       0.0000
     44 XX         -6.9969   10.4205   43.8944 Du     44  UNL44       0.0000
     45 XX         -6.9969   10.4205   45.8944 Du     45  UNL45       0.0000
     46 XX         -6.9969   10.4205   47.8944 Du     46  UNL46       0.0000
     47 XX         -6.9969   12.4205   45.8944 Du     47  UNL47       0.0000
     48 XX         -4.9969    6.4205   43.8944 Du     48  UNL48       0.0000
     49 XX         -4.9969    6.4205   45.8944 Du     49  UNL49       0.0000
     50 XX         -4.9969    8.4205   43.8944 Du     50  UNL50       0.0000
     51 XX         -4.9969    8.4205   45.8944 Du     51  UNL51       0.0000
     52 XX         -4.9969    8.4205   47.8944 Du     52  UNL52       0.0000
     53 XX         -4.9969   10.4205   43.8944 Du     53  UNL53       0.0000
     54 XX         -4.9969   10.4205   45.8944 Du     54  UNL54       0.0000
@<TRIPOS>BOND
