@<TRIPOS>MOLECULE
*****
 442 0 0 0 0
SMALL
GASTEIGER

@<TRIPOS>ATOM
      1 XX         13.6265   -2.9419   18.9330 Du      1  UNL1        0.0000
      2 XX         13.6265   -0.9419   20.9330 Du      2  UNL2        0.0000
      3 XX         13.6265    5.0581   20.9330 Du      3  UNL3        0.0000
      4 XX         13.6265    5.0581   22.9330 Du      4  UNL4        0.0000
      5 XX         13.6265    5.0581   24.9330 Du      5  UNL5        0.0000
      6 XX         13.6265    5.0581   40.9330 Du      6  UNL6        0.0000
      7 XX         13.6265    7.0581   22.9330 Du      7  UNL7        0.0000
      8 XX         13.6265    7.0581   24.9330 Du      8  UNL8        0.0000
      9 XX         13.6265    7.0581   26.9330 Du      9  UNL9        0.0000
     10 XX         13.6265    9.0581   22.9330 Du     10  UNL10       0.0000
     11 XX         15.6265   -4.9419   20.9330 Du     11  UNL11       0.0000
     12 XX         15.6265   -2.9419   20.9330 Du     12  UNL12       0.0000
     13 XX         15.6265   -0.9419   20.9330 Du     13  UNL13       0.0000
     14 XX         15.6265    1.0581   22.9330 Du     14  UNL14       0.0000
     15 XX         15.6265    3.0581   22.9330 Du     15  UNL15       0.0000
     16 XX         15.6265    3.0581   24.9330 Du     16  UNL16       0.0000
     17 XX         15.6265    3.0581   26.9330 Du     17  UNL17       0.0000
     18 XX         15.6265    3.0581   30.9330 Du     18  UNL18       0.0000
     19 XX         15.6265    5.0581   22.9330 Du     19  UNL19       0.0000
     20 XX         15.6265    5.0581   24.9330 Du     20  UNL20       0.0000
     21 XX         15.6265    5.0581   26.9330 Du     21  UNL21       0.0000
     22 XX         15.6265    5.0581   28.9330 Du     22  UNL22       0.0000
     23 XX         15.6265    5.0581   30.9330 Du     23  UNL23       0.0000
     24 XX         15.6265    5.0581   38.9330 Du     24  UNL24       0.0000
     25 XX         15.6265    5.0581   42.9330 Du     25  UNL25       0.0000
     26 XX         15.6265    7.0581   24.9330 Du     26  UNL26       0.0000
     27 XX         15.6265    7.0581   26.9330 Du     27  UNL27       0.0000
     28 XX         15.6265    7.0581   28.9330 Du     28  UNL28       0.0000
     29 XX         15.6265    7.0581   30.9330 Du     29  UNL29       0.0000
     30 XX         15.6265    7.0581   40.9330 Du     30  UNL30       0.0000
     31 XX         15.6265    9.0581   22.9330 Du     31  UNL31       0.0000
     32 XX         15.6265    9.0581   24.9330 Du     32  UNL32       0.0000
     33 XX         15.6265   11.0581   22.9330 Du     33  UNL33       0.0000
     34 XX         15.6265   11.0581   44.9330 Du     34  UNL34       0.0000
     35 XX         17.6265   -2.9419   20.9330 Du     35  UNL35       0.0000
     36 XX         17.6265   -0.9419   20.9330 Du     36  UNL36       0.0000
     37 XX         17.6265   -0.9419   22.9330 Du     37  UNL37       0.0000
     38 XX         17.6265   -0.9419   36.9330 Du     38  UNL38       0.0000
     39 XX         17.6265    1.0581   22.9330 Du     39  UNL39       0.0000
     40 XX         17.6265    1.0581   24.9330 Du     40  UNL40       0.0000
     41 XX         17.6265    3.0581   24.9330 Du     41  UNL41       0.0000
     42 XX         17.6265    3.0581   26.9330 Du     42  UNL42       0.0000
     43 XX         17.6265    3.0581   28.9330 Du     43  UNL43       0.0000
     44 XX         17.6265    3.0581   30.9330 Du     44  UNL44       0.0000
     45 XX         17.6265    3.0581   32.9330 Du     45  UNL45       0.0000
     46 XX         17.6265    3.0581   36.9330 Du     46  UNL46       0.0000
     47 XX         17.6265    3.0581   38.9330 Du     47  UNL47       0.0000
     48 XX         17.6265    5.0581   24.9330 Du     48  UNL48       0.0000
     49 XX         17.6265    5.0581   28.9330 Du     49  UNL49       0.0000
     50 XX         17.6265    5.0581   30.9330 Du     50  UNL50       0.0000
     51 XX         17.6265    5.0581   32.9330 Du     51  UNL51       0.0000
     52 XX         17.6265    5.0581   34.9330 Du     52  UNL52       0.0000
     53 XX         17.6265    5.0581   36.9330 Du     53  UNL53       0.0000
     54 XX         17.6265    5.0581   38.9330 Du     54  UNL54       0.0000
     55 XX         17.6265    5.0581   40.9330 Du     55  UNL55       0.0000
     56 XX         17.6265    7.0581   22.9330 Du     56  UNL56       0.0000
     57 XX         17.6265    7.0581   24.9330 Du     57  UNL57       0.0000
     58 XX         17.6265    7.0581   26.9330 Du     58  UNL58       0.0000
     59 XX         17.6265    7.0581   28.9330 Du     59  UNL59       0.0000
     60 XX         17.6265    7.0581   30.9330 Du     60  UNL60       0.0000
     61 XX         17.6265    7.0581   32.9330 Du     61  UNL61       0.0000
     62 XX         17.6265    7.0581   34.9330 Du     62  UNL62       0.0000
     63 XX         17.6265    7.0581   38.9330 Du     63  UNL63       0.0000
     64 XX         17.6265    7.0581   40.9330 Du     64  UNL64       0.0000
     65 XX         17.6265    7.0581   42.9330 Du     65  UNL65       0.0000
     66 XX         17.6265    9.0581   22.9330 Du     66  UNL66       0.0000
     67 XX         17.6265    9.0581   24.9330 Du     67  UNL67       0.0000
     68 XX         17.6265    9.0581   26.9330 Du     68  UNL68       0.0000
     69 XX         17.6265    9.0581   28.9330 Du     69  UNL69       0.0000
     70 XX         17.6265    9.0581   30.9330 Du     70  UNL70       0.0000
     71 XX         17.6265    9.0581   38.9330 Du     71  UNL71       0.0000
     72 XX         17.6265    9.0581   40.9330 Du     72  UNL72       0.0000
     73 XX         17.6265   11.0581   22.9330 Du     73  UNL73       0.0000
     74 XX         17.6265   11.0581   24.9330 Du     74  UNL74       0.0000
     75 XX         17.6265   11.0581   42.9330 Du     75  UNL75       0.0000
     76 XX         19.6265   -0.9419   20.9330 Du     76  UNL76       0.0000
     77 XX         19.6265   -0.9419   22.9330 Du     77  UNL77       0.0000
     78 XX         19.6265    1.0581   22.9330 Du     78  UNL78       0.0000
     79 XX         19.6265    1.0581   24.9330 Du     79  UNL79       0.0000
     80 XX         19.6265    1.0581   26.9330 Du     80  UNL80       0.0000
     81 XX         19.6265    1.0581   28.9330 Du     81  UNL81       0.0000
     82 XX         19.6265    1.0581   32.9330 Du     82  UNL82       0.0000
     83 XX         19.6265    1.0581   34.9330 Du     83  UNL83       0.0000
     84 XX         19.6265    1.0581   36.9330 Du     84  UNL84       0.0000
     85 XX         19.6265    1.0581   38.9330 Du     85  UNL85       0.0000
     86 XX         19.6265    3.0581   24.9330 Du     86  UNL86       0.0000
     87 XX         19.6265    3.0581   28.9330 Du     87  UNL87       0.0000
     88 XX         19.6265    3.0581   30.9330 Du     88  UNL88       0.0000
     89 XX         19.6265    3.0581   32.9330 Du     89  UNL89       0.0000
     90 XX         19.6265    3.0581   34.9330 Du     90  UNL90       0.0000
     91 XX         19.6265    3.0581   36.9330 Du     91  UNL91       0.0000
     92 XX         19.6265    3.0581   38.9330 Du     92  UNL92       0.0000
     93 XX         19.6265    3.0581   40.9330 Du     93  UNL93       0.0000
     94 XX         19.6265    5.0581   30.9330 Du     94  UNL94       0.0000
     95 XX         19.6265    5.0581   32.9330 Du     95  UNL95       0.0000
     96 XX         19.6265    5.0581   34.9330 Du     96  UNL96       0.0000
     97 XX         19.6265    5.0581   36.9330 Du     97  UNL97       0.0000
     98 XX         19.6265    5.0581   38.9330 Du     98  UNL98       0.0000
     99 XX         19.6265    7.0581   22.9330 Du     99  UNL99       0.0000
    100 XX         19.6265    7.0581   24.9330 Du    100  UNL100      0.0000
    101 XX         19.6265    7.0581   28.9330 Du    101  UNL101      0.0000
    102 XX         19.6265    7.0581   30.9330 Du    102  UNL102      0.0000
    103 XX         19.6265    7.0581   32.9330 Du    103  UNL103      0.0000
    104 XX         19.6265    7.0581   34.9330 Du    104  UNL104      0.0000
    105 XX         19.6265    7.0581   36.9330 Du    105  UNL105      0.0000
    106 XX         19.6265    7.0581   38.9330 Du    106  UNL106      0.0000
    107 XX         19.6265    7.0581   40.9330 Du    107  UNL107      0.0000
    108 XX         19.6265    9.0581   20.9330 Du    108  UNL108      0.0000
    109 XX         19.6265    9.0581   22.9330 Du    109  UNL109      0.0000
    110 XX         19.6265    9.0581   24.9330 Du    110  UNL110      0.0000
    111 XX         19.6265    9.0581   26.9330 Du    111  UNL111      0.0000
    112 XX         19.6265    9.0581   28.9330 Du    112  UNL112      0.0000
    113 XX         19.6265    9.0581   30.9330 Du    113  UNL113      0.0000
    114 XX         19.6265    9.0581   32.9330 Du    114  UNL114      0.0000
    115 XX         19.6265    9.0581   36.9330 Du    115  UNL115      0.0000
    116 XX         19.6265    9.0581   38.9330 Du    116  UNL116      0.0000
    117 XX         19.6265    9.0581   40.9330 Du    117  UNL117      0.0000
    118 XX         19.6265   11.0581   22.9330 Du    118  UNL118      0.0000
    119 XX         19.6265   11.0581   26.9330 Du    119  UNL119      0.0000
    120 XX         19.6265   11.0581   28.9330 Du    120  UNL120      0.0000
    121 XX         19.6265   11.0581   30.9330 Du    121  UNL121      0.0000
    122 XX         19.6265   11.0581   40.9330 Du    122  UNL122      0.0000
    123 XX         19.6265   11.0581   42.9330 Du    123  UNL123      0.0000
    124 XX         19.6265   13.0581   44.9330 Du    124  UNL124      0.0000
    125 XX         19.6265   13.0581   46.9330 Du    125  UNL125      0.0000
    126 XX         21.6265   -0.9419   32.9330 Du    126  UNL126      0.0000
    127 XX         21.6265   -0.9419   38.9330 Du    127  UNL127      0.0000
    128 XX         21.6265   -0.9419   40.9330 Du    128  UNL128      0.0000
    129 XX         21.6265    1.0581   22.9330 Du    129  UNL129      0.0000
    130 XX         21.6265    1.0581   24.9330 Du    130  UNL130      0.0000
    131 XX         21.6265    1.0581   26.9330 Du    131  UNL131      0.0000
    132 XX         21.6265    1.0581   30.9330 Du    132  UNL132      0.0000
    133 XX         21.6265    1.0581   32.9330 Du    133  UNL133      0.0000
    134 XX         21.6265    1.0581   34.9330 Du    134  UNL134      0.0000
    135 XX         21.6265    1.0581   36.9330 Du    135  UNL135      0.0000
    136 XX         21.6265    1.0581   38.9330 Du    136  UNL136      0.0000
    137 XX         21.6265    1.0581   40.9330 Du    137  UNL137      0.0000
    138 XX         21.6265    1.0581   42.9330 Du    138  UNL138      0.0000
    139 XX         21.6265    3.0581   24.9330 Du    139  UNL139      0.0000
    140 XX         21.6265    3.0581   26.9330 Du    140  UNL140      0.0000
    141 XX         21.6265    3.0581   28.9330 Du    141  UNL141      0.0000
    142 XX         21.6265    3.0581   30.9330 Du    142  UNL142      0.0000
    143 XX         21.6265    3.0581   32.9330 Du    143  UNL143      0.0000
    144 XX         21.6265    3.0581   34.9330 Du    144  UNL144      0.0000
    145 XX         21.6265    3.0581   36.9330 Du    145  UNL145      0.0000
    146 XX         21.6265    3.0581   38.9330 Du    146  UNL146      0.0000
    147 XX         21.6265    3.0581   40.9330 Du    147  UNL147      0.0000
    148 XX         21.6265    3.0581   42.9330 Du    148  UNL148      0.0000
    149 XX         21.6265    5.0581   22.9330 Du    149  UNL149      0.0000
    150 XX         21.6265    5.0581   24.9330 Du    150  UNL150      0.0000
    151 XX         21.6265    5.0581   28.9330 Du    151  UNL151      0.0000
    152 XX         21.6265    5.0581   30.9330 Du    152  UNL152      0.0000
    153 XX         21.6265    5.0581   32.9330 Du    153  UNL153      0.0000
    154 XX         21.6265    5.0581   34.9330 Du    154  UNL154      0.0000
    155 XX         21.6265    5.0581   36.9330 Du    155  UNL155      0.0000
    156 XX         21.6265    5.0581   38.9330 Du    156  UNL156      0.0000
    157 XX         21.6265    5.0581   40.9330 Du    157  UNL157      0.0000
    158 XX         21.6265    7.0581   20.9330 Du    158  UNL158      0.0000
    159 XX         21.6265    7.0581   22.9330 Du    159  UNL159      0.0000
    160 XX         21.6265    7.0581   24.9330 Du    160  UNL160      0.0000
    161 XX         21.6265    7.0581   26.9330 Du    161  UNL161      0.0000
    162 XX         21.6265    7.0581   28.9330 Du    162  UNL162      0.0000
    163 XX         21.6265    7.0581   30.9330 Du    163  UNL163      0.0000
    164 XX         21.6265    7.0581   32.9330 Du    164  UNL164      0.0000
    165 XX         21.6265    7.0581   34.9330 Du    165  UNL165      0.0000
    166 XX         21.6265    7.0581   36.9330 Du    166  UNL166      0.0000
    167 XX         21.6265    7.0581   38.9330 Du    167  UNL167      0.0000
    168 XX         21.6265    7.0581   40.9330 Du    168  UNL168      0.0000
    169 XX         21.6265    7.0581   42.9330 Du    169  UNL169      0.0000
    170 XX         21.6265    7.0581   46.9330 Du    170  UNL170      0.0000
    171 XX         21.6265    9.0581   20.9330 Du    171  UNL171      0.0000
    172 XX         21.6265    9.0581   22.9330 Du    172  UNL172      0.0000
    173 XX         21.6265    9.0581   24.9330 Du    173  UNL173      0.0000
    174 XX         21.6265    9.0581   26.9330 Du    174  UNL174      0.0000
    175 XX         21.6265    9.0581   28.9330 Du    175  UNL175      0.0000
    176 XX         21.6265    9.0581   30.9330 Du    176  UNL176      0.0000
    177 XX         21.6265    9.0581   32.9330 Du    177  UNL177      0.0000
    178 XX         21.6265    9.0581   34.9330 Du    178  UNL178      0.0000
    179 XX         21.6265    9.0581   36.9330 Du    179  UNL179      0.0000
    180 XX         21.6265    9.0581   38.9330 Du    180  UNL180      0.0000
    181 XX         21.6265    9.0581   40.9330 Du    181  UNL181      0.0000
    182 XX         21.6265    9.0581   42.9330 Du    182  UNL182      0.0000
    183 XX         21.6265   11.0581   20.9330 Du    183  UNL183      0.0000
    184 XX         21.6265   11.0581   28.9330 Du    184  UNL184      0.0000
    185 XX         21.6265   11.0581   30.9330 Du    185  UNL185      0.0000
    186 XX         21.6265   11.0581   32.9330 Du    186  UNL186      0.0000
    187 XX         21.6265   11.0581   40.9330 Du    187  UNL187      0.0000
    188 XX         21.6265   11.0581   42.9330 Du    188  UNL188      0.0000
    189 XX         21.6265   11.0581   44.9330 Du    189  UNL189      0.0000
    190 XX         21.6265   11.0581   46.9330 Du    190  UNL190      0.0000
    191 XX         21.6265   13.0581   42.9330 Du    191  UNL191      0.0000
    192 XX         21.6265   13.0581   44.9330 Du    192  UNL192      0.0000
    193 XX         21.6265   15.0581   44.9330 Du    193  UNL193      0.0000
    194 XX         23.6265   -2.9419   38.9330 Du    194  UNL194      0.0000
    195 XX         23.6265   -0.9419   34.9330 Du    195  UNL195      0.0000
    196 XX         23.6265   -0.9419   36.9330 Du    196  UNL196      0.0000
    197 XX         23.6265   -0.9419   38.9330 Du    197  UNL197      0.0000
    198 XX         23.6265    1.0581   22.9330 Du    198  UNL198      0.0000
    199 XX         23.6265    1.0581   24.9330 Du    199  UNL199      0.0000
    200 XX         23.6265    1.0581   32.9330 Du    200  UNL200      0.0000
    201 XX         23.6265    1.0581   34.9330 Du    201  UNL201      0.0000
    202 XX         23.6265    1.0581   36.9330 Du    202  UNL202      0.0000
    203 XX         23.6265    1.0581   38.9330 Du    203  UNL203      0.0000
    204 XX         23.6265    3.0581   22.9330 Du    204  UNL204      0.0000
    205 XX         23.6265    3.0581   24.9330 Du    205  UNL205      0.0000
    206 XX         23.6265    3.0581   26.9330 Du    206  UNL206      0.0000
    207 XX         23.6265    3.0581   30.9330 Du    207  UNL207      0.0000
    208 XX         23.6265    3.0581   32.9330 Du    208  UNL208      0.0000
    209 XX         23.6265    3.0581   34.9330 Du    209  UNL209      0.0000
    210 XX         23.6265    3.0581   36.9330 Du    210  UNL210      0.0000
    211 XX         23.6265    3.0581   38.9330 Du    211  UNL211      0.0000
    212 XX         23.6265    3.0581   40.9330 Du    212  UNL212      0.0000
    213 XX         23.6265    5.0581   22.9330 Du    213  UNL213      0.0000
    214 XX         23.6265    5.0581   24.9330 Du    214  UNL214      0.0000
    215 XX         23.6265    5.0581   26.9330 Du    215  UNL215      0.0000
    216 XX         23.6265    5.0581   28.9330 Du    216  UNL216      0.0000
    217 XX         23.6265    5.0581   30.9330 Du    217  UNL217      0.0000
    218 XX         23.6265    5.0581   32.9330 Du    218  UNL218      0.0000
    219 XX         23.6265    5.0581   34.9330 Du    219  UNL219      0.0000
    220 XX         23.6265    5.0581   36.9330 Du    220  UNL220      0.0000
    221 XX         23.6265    5.0581   38.9330 Du    221  UNL221      0.0000
    222 XX         23.6265    5.0581   40.9330 Du    222  UNL222      0.0000
    223 XX         23.6265    5.0581   42.9330 Du    223  UNL223      0.0000
    224 XX         23.6265    7.0581   22.9330 Du    224  UNL224      0.0000
    225 XX         23.6265    7.0581   24.9330 Du    225  UNL225      0.0000
    226 XX         23.6265    7.0581   26.9330 Du    226  UNL226      0.0000
    227 XX         23.6265    7.0581   28.9330 Du    227  UNL227      0.0000
    228 XX         23.6265    7.0581   30.9330 Du    228  UNL228      0.0000
    229 XX         23.6265    7.0581   32.9330 Du    229  UNL229      0.0000
    230 XX         23.6265    7.0581   34.9330 Du    230  UNL230      0.0000
    231 XX         23.6265    7.0581   36.9330 Du    231  UNL231      0.0000
    232 XX         23.6265    7.0581   38.9330 Du    232  UNL232      0.0000
    233 XX         23.6265    7.0581   40.9330 Du    233  UNL233      0.0000
    234 XX         23.6265    7.0581   42.9330 Du    234  UNL234      0.0000
    235 XX         23.6265    7.0581   44.9330 Du    235  UNL235      0.0000
    236 XX         23.6265    7.0581   46.9330 Du    236  UNL236      0.0000
    237 XX         23.6265    9.0581   20.9330 Du    237  UNL237      0.0000
    238 XX         23.6265    9.0581   24.9330 Du    238  UNL238      0.0000
    239 XX         23.6265    9.0581   30.9330 Du    239  UNL239      0.0000
    240 XX         23.6265    9.0581   34.9330 Du    240  UNL240      0.0000
    241 XX         23.6265    9.0581   36.9330 Du    241  UNL241      0.0000
    242 XX         23.6265    9.0581   38.9330 Du    242  UNL242      0.0000
    243 XX         23.6265    9.0581   40.9330 Du    243  UNL243      0.0000
    244 XX         23.6265    9.0581   42.9330 Du    244  UNL244      0.0000
    245 XX         23.6265    9.0581   44.9330 Du    245  UNL245      0.0000
    246 XX         23.6265   11.0581   30.9330 Du    246  UNL246      0.0000
    247 XX         23.6265   11.0581   34.9330 Du    247  UNL247      0.0000
    248 XX         23.6265   11.0581   36.9330 Du    248  UNL248      0.0000
    249 XX         23.6265   11.0581   38.9330 Du    249  UNL249      0.0000
    250 XX         23.6265   11.0581   40.9330 Du    250  UNL250      0.0000
    251 XX         23.6265   11.0581   42.9330 Du    251  UNL251      0.0000
    252 XX         23.6265   11.0581   44.9330 Du    252  UNL252      0.0000
    253 XX         23.6265   11.0581   46.9330 Du    253  UNL253      0.0000
    254 XX         23.6265   13.0581   42.9330 Du    254  UNL254      0.0000
    255 XX         23.6265   13.0581   44.9330 Du    255  UNL255      0.0000
    256 XX         23.6265   13.0581   46.9330 Du    256  UNL256      0.0000
    257 XX         23.6265   15.0581   44.9330 Du    257  UNL257      0.0000
    258 XX         25.6265   -0.9419   22.9330 Du    258  UNL258      0.0000
    259 XX         25.6265   -0.9419   24.9330 Du    259  UNL259      0.0000
    260 XX         25.6265   -0.9419   34.9330 Du    260  UNL260      0.0000
    261 XX         25.6265    1.0581   22.9330 Du    261  UNL261      0.0000
    262 XX         25.6265    1.0581   24.9330 Du    262  UNL262      0.0000
    263 XX         25.6265    1.0581   26.9330 Du    263  UNL263      0.0000
    264 XX         25.6265    3.0581   22.9330 Du    264  UNL264      0.0000
    265 XX         25.6265    3.0581   24.9330 Du    265  UNL265      0.0000
    266 XX         25.6265    5.0581   22.9330 Du    266  UNL266      0.0000
    267 XX         25.6265    5.0581   24.9330 Du    267  UNL267      0.0000
    268 XX         25.6265    5.0581   26.9330 Du    268  UNL268      0.0000
    269 XX         25.6265    5.0581   36.9330 Du    269  UNL269      0.0000
    270 XX         25.6265    5.0581   38.9330 Du    270  UNL270      0.0000
    271 XX         25.6265    5.0581   40.9330 Du    271  UNL271      0.0000
    272 XX         25.6265    7.0581   24.9330 Du    272  UNL272      0.0000
    273 XX         25.6265    7.0581   34.9330 Du    273  UNL273      0.0000
    274 XX         25.6265    7.0581   36.9330 Du    274  UNL274      0.0000
    275 XX         25.6265    7.0581   38.9330 Du    275  UNL275      0.0000
    276 XX         25.6265    7.0581   40.9330 Du    276  UNL276      0.0000
    277 XX         25.6265    7.0581   42.9330 Du    277  UNL277      0.0000
    278 XX         25.6265    7.0581   44.9330 Du    278  UNL278      0.0000
    279 XX         25.6265    9.0581   20.9330 Du    279  UNL279      0.0000
    280 XX         25.6265    9.0581   36.9330 Du    280  UNL280      0.0000
    281 XX         25.6265    9.0581   38.9330 Du    281  UNL281      0.0000
    282 XX         25.6265    9.0581   40.9330 Du    282  UNL282      0.0000
    283 XX         25.6265    9.0581   42.9330 Du    283  UNL283      0.0000
    284 XX         25.6265   11.0581   34.9330 Du    284  UNL284      0.0000
    285 XX         25.6265   11.0581   36.9330 Du    285  UNL285      0.0000
    286 XX         25.6265   11.0581   38.9330 Du    286  UNL286      0.0000
    287 XX         25.6265   11.0581   40.9330 Du    287  UNL287      0.0000
    288 XX         25.6265   11.0581   42.9330 Du    288  UNL288      0.0000
    289 XX         25.6265   13.0581   34.9330 Du    289  UNL289      0.0000
    290 XX         25.6265   13.0581   36.9330 Du    290  UNL290      0.0000
    291 XX         25.6265   13.0581   40.9330 Du    291  UNL291      0.0000
    292 XX         25.6265   13.0581   42.9330 Du    292  UNL292      0.0000
    293 XX         25.6265   15.0581   42.9330 Du    293  UNL293      0.0000
    294 XX         27.6265   -0.9419   24.9330 Du    294  UNL294      0.0000
    295 XX         27.6265   -0.9419   26.9330 Du    295  UNL295      0.0000
    296 XX         27.6265    1.0581   22.9330 Du    296  UNL296      0.0000
    297 XX         27.6265    1.0581   24.9330 Du    297  UNL297      0.0000
    298 XX         27.6265    1.0581   26.9330 Du    298  UNL298      0.0000
    299 XX         27.6265    1.0581   28.9330 Du    299  UNL299      0.0000
    300 XX         27.6265    3.0581   20.9330 Du    300  UNL300      0.0000
    301 XX         27.6265    3.0581   22.9330 Du    301  UNL301      0.0000
    302 XX         27.6265    3.0581   24.9330 Du    302  UNL302      0.0000
    303 XX         27.6265    3.0581   26.9330 Du    303  UNL303      0.0000
    304 XX         27.6265    5.0581   24.9330 Du    304  UNL304      0.0000
    305 XX         27.6265    7.0581   36.9330 Du    305  UNL305      0.0000
    306 XX         27.6265    7.0581   38.9330 Du    306  UNL306      0.0000
    307 XX         27.6265    7.0581   40.9330 Du    307  UNL307      0.0000
    308 XX         27.6265    9.0581   34.9330 Du    308  UNL308      0.0000
    309 XX         27.6265    9.0581   36.9330 Du    309  UNL309      0.0000
    310 XX         27.6265    9.0581   38.9330 Du    310  UNL310      0.0000
    311 XX         27.6265    9.0581   40.9330 Du    311  UNL311      0.0000
    312 XX         27.6265   11.0581   34.9330 Du    312  UNL312      0.0000
    313 XX         27.6265   11.0581   36.9330 Du    313  UNL313      0.0000
    314 XX         27.6265   11.0581   38.9330 Du    314  UNL314      0.0000
    315 XX         27.6265   11.0581   40.9330 Du    315  UNL315      0.0000
    316 XX         27.6265   13.0581   34.9330 Du    316  UNL316      0.0000
    317 XX         27.6265   13.0581   36.9330 Du    317  UNL317      0.0000
    318 XX         27.6265   13.0581   38.9330 Du    318  UNL318      0.0000
    319 XX         27.6265   13.0581   40.9330 Du    319  UNL319      0.0000
    320 XX         27.6265   15.0581   36.9330 Du    320  UNL320      0.0000
    321 XX         29.6265   -2.9419   20.9330 Du    321  UNL321      0.0000
    322 XX         29.6265   -2.9419   24.9330 Du    322  UNL322      0.0000
    323 XX         29.6265   -2.9419   26.9330 Du    323  UNL323      0.0000
    324 XX         29.6265   -0.9419   22.9330 Du    324  UNL324      0.0000
    325 XX         29.6265   -0.9419   24.9330 Du    325  UNL325      0.0000
    326 XX         29.6265   -0.9419   26.9330 Du    326  UNL326      0.0000
    327 XX         29.6265   -0.9419   28.9330 Du    327  UNL327      0.0000
    328 XX         29.6265    1.0581   22.9330 Du    328  UNL328      0.0000
    329 XX         29.6265    1.0581   24.9330 Du    329  UNL329      0.0000
    330 XX         29.6265    1.0581   26.9330 Du    330  UNL330      0.0000
    331 XX         29.6265    1.0581   28.9330 Du    331  UNL331      0.0000
    332 XX         29.6265    3.0581   24.9330 Du    332  UNL332      0.0000
    333 XX         29.6265    3.0581   26.9330 Du    333  UNL333      0.0000
    334 XX         29.6265    3.0581   28.9330 Du    334  UNL334      0.0000
    335 XX         29.6265    7.0581   36.9330 Du    335  UNL335      0.0000
    336 XX         29.6265    7.0581   38.9330 Du    336  UNL336      0.0000
    337 XX         29.6265    7.0581   40.9330 Du    337  UNL337      0.0000
    338 XX         29.6265    9.0581   36.9330 Du    338  UNL338      0.0000
    339 XX         29.6265    9.0581   38.9330 Du    339  UNL339      0.0000
    340 XX         29.6265    9.0581   40.9330 Du    340  UNL340      0.0000
    341 XX         29.6265   11.0581   34.9330 Du    341  UNL341      0.0000
    342 XX         29.6265   11.0581   36.9330 Du    342  UNL342      0.0000
    343 XX         29.6265   11.0581   38.9330 Du    343  UNL343      0.0000
    344 XX         29.6265   11.0581   40.9330 Du    344  UNL344      0.0000
    345 XX         29.6265   13.0581   34.9330 Du    345  UNL345      0.0000
    346 XX         29.6265   13.0581   36.9330 Du    346  UNL346      0.0000
    347 XX         29.6265   13.0581   38.9330 Du    347  UNL347      0.0000
    348 XX         29.6265   13.0581   40.9330 Du    348  UNL348      0.0000
    349 XX         29.6265   15.0581   36.9330 Du    349  UNL349      0.0000
    350 XX         29.6265   15.0581   38.9330 Du    350  UNL350      0.0000
    351 XX         31.6265   -2.9419   24.9330 Du    351  UNL351      0.0000
    352 XX         31.6265   -2.9419   26.9330 Du    352  UNL352      0.0000
    353 XX         31.6265   -0.9419   22.9330 Du    353  UNL353      0.0000
    354 XX         31.6265   -0.9419   24.9330 Du    354  UNL354      0.0000
    355 XX         31.6265   -0.9419   26.9330 Du    355  UNL355      0.0000
    356 XX         31.6265   -0.9419   28.9330 Du    356  UNL356      0.0000
    357 XX         31.6265    1.0581   22.9330 Du    357  UNL357      0.0000
    358 XX         31.6265    1.0581   24.9330 Du    358  UNL358      0.0000
    359 XX         31.6265    1.0581   26.9330 Du    359  UNL359      0.0000
    360 XX         31.6265    1.0581   28.9330 Du    360  UNL360      0.0000
    361 XX         31.6265    3.0581   24.9330 Du    361  UNL361      0.0000
    362 XX         31.6265    3.0581   26.9330 Du    362  UNL362      0.0000
    363 XX         31.6265    3.0581   28.9330 Du    363  UNL363      0.0000
    364 XX         31.6265    9.0581   38.9330 Du    364  UNL364      0.0000
    365 XX         31.6265   11.0581   36.9330 Du    365  UNL365      0.0000
    366 XX         31.6265   11.0581   38.9330 Du    366  UNL366      0.0000
    367 XX         31.6265   13.0581   36.9330 Du    367  UNL367      0.0000
    368 XX         33.6265   -2.9419   24.9330 Du    368  UNL368      0.0000
    369 XX         33.6265   -2.9419   26.9330 Du    369  UNL369      0.0000
    370 XX         33.6265   -0.9419   22.9330 Du    370  UNL370      0.0000
    371 XX         33.6265   -0.9419   24.9330 Du    371  UNL371      0.0000
    372 XX         33.6265   -0.9419   26.9330 Du    372  UNL372      0.0000
    373 XX         33.6265   -0.9419   28.9330 Du    373  UNL373      0.0000
    374 XX         33.6265    1.0581   22.9330 Du    374  UNL374      0.0000
    375 XX         33.6265    1.0581   24.9330 Du    375  UNL375      0.0000
    376 XX         33.6265    1.0581   26.9330 Du    376  UNL376      0.0000
    377 XX         33.6265    1.0581   28.9330 Du    377  UNL377      0.0000
    378 XX         33.6265    3.0581   22.9330 Du    378  UNL378      0.0000
    379 XX         33.6265    3.0581   24.9330 Du    379  UNL379      0.0000
    380 XX         33.6265    3.0581   26.9330 Du    380  UNL380      0.0000
    381 XX         33.6265    3.0581   28.9330 Du    381  UNL381      0.0000
    382 XX         33.6265    5.0581   24.9330 Du    382  UNL382      0.0000
    383 XX         33.6265    5.0581   26.9330 Du    383  UNL383      0.0000
    384 XX         35.6265   -2.9419   22.9330 Du    384  UNL384      0.0000
    385 XX         35.6265   -0.9419   22.9330 Du    385  UNL385      0.0000
    386 XX         35.6265   -0.9419   24.9330 Du    386  UNL386      0.0000
    387 XX         35.6265   -0.9419   26.9330 Du    387  UNL387      0.0000
    388 XX         35.6265    1.0581   20.9330 Du    388  UNL388      0.0000
    389 XX         35.6265    1.0581   22.9330 Du    389  UNL389      0.0000
    390 XX         35.6265    1.0581   24.9330 Du    390  UNL390      0.0000
    391 XX         35.6265    1.0581   26.9330 Du    391  UNL391      0.0000
    392 XX         35.6265    1.0581   28.9330 Du    392  UNL392      0.0000
    393 XX         35.6265    3.0581   22.9330 Du    393  UNL393      0.0000
    394 XX         35.6265    3.0581   24.9330 Du    394  UNL394      0.0000
    395 XX         35.6265    3.0581   26.9330 Du    395  UNL395      0.0000
    396 XX         35.6265    5.0581   22.9330 Du    396  UNL396      0.0000
    397 XX         35.6265    5.0581   24.9330 Du    397  UNL397      0.0000
    398 XX         35.6265    5.0581   26.9330 Du    398  UNL398      0.0000
    399 XX         35.6265    7.0581   24.9330 Du    399  UNL399      0.0000
    400 XX         35.6265    7.0581   26.9330 Du    400  UNL400      0.0000
    401 XX         35.6265    9.0581   24.9330 Du    401  UNL401      0.0000
    402 XX         35.6265    9.0581   26.9330 Du    402  UNL402      0.0000
    403 XX         35.6265   11.0581   24.9330 Du    403  UNL403      0.0000
    404 XX         35.6265   11.0581   26.9330 Du    404  UNL404      0.0000
    405 XX         35.6265   13.0581   28.9330 Du    405  UNL405      0.0000
    406 XX         37.6265   -0.9419   22.9330 Du    406  UNL406      0.0000
    407 XX         37.6265    1.0581   20.9330 Du    407  UNL407      0.0000
    408 XX         37.6265    1.0581   22.9330 Du    408  UNL408      0.0000
    409 XX         37.6265    1.0581   24.9330 Du    409  UNL409      0.0000
    410 XX         37.6265    1.0581   26.9330 Du    410  UNL410      0.0000
    411 XX         37.6265    3.0581   22.9330 Du    411  UNL411      0.0000
    412 XX         37.6265    3.0581   24.9330 Du    412  UNL412      0.0000
    413 XX         37.6265    3.0581   26.9330 Du    413  UNL413      0.0000
    414 XX         37.6265    5.0581   20.9330 Du    414  UNL414      0.0000
    415 XX         37.6265    5.0581   22.9330 Du    415  UNL415      0.0000
    416 XX         37.6265    5.0581   24.9330 Du    416  UNL416      0.0000
    417 XX         37.6265    5.0581   26.9330 Du    417  UNL417      0.0000
    418 XX         37.6265    7.0581   20.9330 Du    418  UNL418      0.0000
    419 XX         37.6265    7.0581   22.9330 Du    419  UNL419      0.0000
    420 XX         37.6265    7.0581   24.9330 Du    420  UNL420      0.0000
    421 XX         37.6265    7.0581   26.9330 Du    421  UNL421      0.0000
    422 XX         37.6265    7.0581   28.9330 Du    422  UNL422      0.0000
    423 XX         37.6265    9.0581   22.9330 Du    423  UNL423      0.0000
    424 XX         37.6265    9.0581   26.9330 Du    424  UNL424      0.0000
    425 XX         37.6265    9.0581   28.9330 Du    425  UNL425      0.0000
    426 XX         37.6265   13.0581   24.9330 Du    426  UNL426      0.0000
    427 XX         39.6265   -0.9419   24.9330 Du    427  UNL427      0.0000
    428 XX         39.6265    1.0581   22.9330 Du    428  UNL428      0.0000
    429 XX         39.6265    1.0581   24.9330 Du    429  UNL429      0.0000
    430 XX         39.6265    3.0581   24.9330 Du    430  UNL430      0.0000
    431 XX         39.6265    3.0581   26.9330 Du    431  UNL431      0.0000
    432 XX         39.6265    5.0581   26.9330 Du    432  UNL432      0.0000
    433 XX         39.6265    5.0581   28.9330 Du    433  UNL433      0.0000
    434 XX         39.6265    7.0581   26.9330 Du    434  UNL434      0.0000
    435 XX         39.6265    7.0581   28.9330 Du    435  UNL435      0.0000
    436 XX         41.6265   -0.9419   22.9330 Du    436  UNL436      0.0000
    437 XX         41.6265    1.0581   22.9330 Du    437  UNL437      0.0000
    438 XX         41.6265    1.0581   24.9330 Du    438  UNL438      0.0000
    439 XX         41.6265    3.0581   26.9330 Du    439  UNL439      0.0000
    440 XX         41.6265    5.0581   28.9330 Du    440  UNL440      0.0000
    441 XX         41.6265    7.0581   28.9330 Du    441  UNL441      0.0000
    442 XX         43.6265   -0.9419   24.9330 Du    442  UNL442      0.0000
@<TRIPOS>BOND
