@<TRIPOS>MOLECULE
*****
 108 0 0 0 0
SMALL
GASTEIGER

@<TRIPOS>ATOM
      1 XX         -8.2014  -12.4537   34.0217 Du      1  UNL1        0.0000
      2 XX         -8.2014  -10.4537   32.0217 Du      2  UNL2        0.0000
      3 XX         -8.2014  -10.4537   34.0217 Du      3  UNL3        0.0000
      4 XX         -6.2014  -12.4537   32.0217 Du      4  UNL4        0.0000
      5 XX         -6.2014  -12.4537   34.0217 Du      5  UNL5        0.0000
      6 XX         -6.2014  -10.4537   30.0217 Du      6  UNL6        0.0000
      7 XX         -6.2014  -10.4537   32.0217 Du      7  UNL7        0.0000
      8 XX         -6.2014  -10.4537   34.0217 Du      8  UNL8        0.0000
      9 XX         -6.2014   -8.4537   30.0217 Du      9  UNL9        0.0000
     10 XX         -6.2014   -8.4537   32.0217 Du     10  UNL10       0.0000
     11 XX         -4.2014  -14.4537   32.0217 Du     11  UNL11       0.0000
     12 XX         -4.2014  -12.4537   30.0217 Du     12  UNL12       0.0000
     13 XX         -4.2014  -12.4537   32.0217 Du     13  UNL13       0.0000
     14 XX         -4.2014  -12.4537   34.0217 Du     14  UNL14       0.0000
     15 XX         -4.2014  -10.4537   30.0217 Du     15  UNL15       0.0000
     16 XX         -4.2014  -10.4537   32.0217 Du     16  UNL16       0.0000
     17 XX         -4.2014  -10.4537   34.0217 Du     17  UNL17       0.0000
     18 XX         -4.2014  -10.4537   36.0217 Du     18  UNL18       0.0000
     19 XX         -4.2014   -8.4537   30.0217 Du     19  UNL19       0.0000
     20 XX         -4.2014   -8.4537   32.0217 Du     20  UNL20       0.0000
     21 XX         -2.2014  -14.4537   32.0217 Du     21  UNL21       0.0000
     22 XX         -2.2014  -12.4537   30.0217 Du     22  UNL22       0.0000
     23 XX         -2.2014  -12.4537   32.0217 Du     23  UNL23       0.0000
     24 XX         -2.2014  -12.4537   34.0217 Du     24  UNL24       0.0000
     25 XX         -2.2014  -12.4537   36.0217 Du     25  UNL25       0.0000
     26 XX         -2.2014  -10.4537   28.0217 Du     26  UNL26       0.0000
     27 XX         -2.2014  -10.4537   30.0217 Du     27  UNL27       0.0000
     28 XX         -2.2014  -10.4537   32.0217 Du     28  UNL28       0.0000
     29 XX         -2.2014  -10.4537   34.0217 Du     29  UNL29       0.0000
     30 XX         -2.2014  -10.4537   36.0217 Du     30  UNL30       0.0000
     31 XX         -2.2014   -8.4537   30.0217 Du     31  UNL31       0.0000
     32 XX         -2.2014   -8.4537   32.0217 Du     32  UNL32       0.0000
     33 XX         -0.2014  -12.4537   30.0217 Du     33  UNL33       0.0000
     34 XX         -0.2014  -12.4537   32.0217 Du     34  UNL34       0.0000
     35 XX         -0.2014  -12.4537   34.0217 Du     35  UNL35       0.0000
     36 XX         -0.2014  -12.4537   36.0217 Du     36  UNL36       0.0000
     37 XX         -0.2014  -10.4537   30.0217 Du     37  UNL37       0.0000
     38 XX         -0.2014  -10.4537   32.0217 Du     38  UNL38       0.0000
     39 XX         -0.2014  -10.4537   34.0217 Du     39  UNL39       0.0000
     40 XX         -0.2014  -10.4537   36.0217 Du     40  UNL40       0.0000
     41 XX         -0.2014  -10.4537   38.0217 Du     41  UNL41       0.0000
     42 XX         -0.2014  -10.4537   40.0217 Du     42  UNL42       0.0000
     43 XX         -0.2014   -8.4537   30.0217 Du     43  UNL43       0.0000
     44 XX         -0.2014   -8.4537   32.0217 Du     44  UNL44       0.0000
     45 XX         -0.2014   -8.4537   40.0217 Du     45  UNL45       0.0000
     46 XX         -0.2014   -8.4537   42.0217 Du     46  UNL46       0.0000
     47 XX         -0.2014   -8.4537   44.0217 Du     47  UNL47       0.0000
     48 XX          1.7986  -12.4537   32.0217 Du     48  UNL48       0.0000
     49 XX          1.7986  -12.4537   34.0217 Du     49  UNL49       0.0000
     50 XX          1.7986  -12.4537   46.0217 Du     50  UNL50       0.0000
     51 XX          1.7986  -10.4537   32.0217 Du     51  UNL51       0.0000
     52 XX          1.7986  -10.4537   34.0217 Du     52  UNL52       0.0000
     53 XX          1.7986  -10.4537   36.0217 Du     53  UNL53       0.0000
     54 XX          1.7986  -10.4537   38.0217 Du     54  UNL54       0.0000
     55 XX          1.7986  -10.4537   40.0217 Du     55  UNL55       0.0000
     56 XX          1.7986  -10.4537   42.0217 Du     56  UNL56       0.0000
     57 XX          1.7986  -10.4537   44.0217 Du     57  UNL57       0.0000
     58 XX          1.7986  -10.4537   46.0217 Du     58  UNL58       0.0000
     59 XX          1.7986  -10.4537   48.0217 Du     59  UNL59       0.0000
     60 XX          1.7986   -8.4537   34.0217 Du     60  UNL60       0.0000
     61 XX          1.7986   -8.4537   42.0217 Du     61  UNL61       0.0000
     62 XX          1.7986   -8.4537   44.0217 Du     62  UNL62       0.0000
     63 XX          1.7986   -8.4537   46.0217 Du     63  UNL63       0.0000
     64 XX          3.7986  -12.4537   38.0217 Du     64  UNL64       0.0000
     65 XX          3.7986  -12.4537   40.0217 Du     65  UNL65       0.0000
     66 XX          3.7986  -12.4537   42.0217 Du     66  UNL66       0.0000
     67 XX          3.7986  -12.4537   44.0217 Du     67  UNL67       0.0000
     68 XX          3.7986  -12.4537   46.0217 Du     68  UNL68       0.0000
     69 XX          3.7986  -10.4537   36.0217 Du     69  UNL69       0.0000
     70 XX          3.7986  -10.4537   38.0217 Du     70  UNL70       0.0000
     71 XX          3.7986  -10.4537   42.0217 Du     71  UNL71       0.0000
     72 XX          3.7986  -10.4537   44.0217 Du     72  UNL72       0.0000
     73 XX          3.7986  -10.4537   46.0217 Du     73  UNL73       0.0000
     74 XX          3.7986  -10.4537   48.0217 Du     74  UNL74       0.0000
     75 XX          3.7986   -8.4537   34.0217 Du     75  UNL75       0.0000
     76 XX          3.7986   -8.4537   36.0217 Du     76  UNL76       0.0000
     77 XX          3.7986   -8.4537   48.0217 Du     77  UNL77       0.0000
     78 XX          5.7986  -12.4537   40.0217 Du     78  UNL78       0.0000
     79 XX          5.7986  -12.4537   42.0217 Du     79  UNL79       0.0000
     80 XX          5.7986  -12.4537   46.0217 Du     80  UNL80       0.0000
     81 XX          5.7986  -10.4537   42.0217 Du     81  UNL81       0.0000
     82 XX          5.7986  -10.4537   48.0217 Du     82  UNL82       0.0000
     83 XX          5.7986  -10.4537   50.0217 Du     83  UNL83       0.0000
     84 XX          7.7986  -12.4537   46.0217 Du     84  UNL84       0.0000
     85 XX          7.7986  -10.4537   42.0217 Du     85  UNL85       0.0000
     86 XX          7.7986  -10.4537   44.0217 Du     86  UNL86       0.0000
     87 XX          7.7986  -10.4537   46.0217 Du     87  UNL87       0.0000
     88 XX          7.7986  -10.4537   48.0217 Du     88  UNL88       0.0000
     89 XX          7.7986   -8.4537   42.0217 Du     89  UNL89       0.0000
     90 XX          7.7986   -8.4537   48.0217 Du     90  UNL90       0.0000
     91 XX          7.7986   -6.4537   42.0217 Du     91  UNL91       0.0000
     92 XX          9.7986  -10.4537   46.0217 Du     92  UNL92       0.0000
     93 XX          9.7986  -10.4537   50.0217 Du     93  UNL93       0.0000
     94 XX          9.7986   -8.4537   42.0217 Du     94  UNL94       0.0000
     95 XX          9.7986   -8.4537   44.0217 Du     95  UNL95       0.0000
     96 XX          9.7986   -8.4537   46.0217 Du     96  UNL96       0.0000
     97 XX          9.7986   -8.4537   48.0217 Du     97  UNL97       0.0000
     98 XX          9.7986   -8.4537   50.0217 Du     98  UNL98       0.0000
     99 XX          9.7986   -6.4537   44.0217 Du     99  UNL99       0.0000
    100 XX          9.7986   -6.4537   48.0217 Du    100  UNL100      0.0000
    101 XX          9.7986   -4.4537   44.0217 Du    101  UNL101      0.0000
    102 XX         11.7986  -10.4537   48.0217 Du    102  UNL102      0.0000
    103 XX         11.7986   -8.4537   46.0217 Du    103  UNL103      0.0000
    104 XX         11.7986   -8.4537   48.0217 Du    104  UNL104      0.0000
    105 XX         11.7986   -6.4537   44.0217 Du    105  UNL105      0.0000
    106 XX         11.7986   -6.4537   46.0217 Du    106  UNL106      0.0000
    107 XX         11.7986   -6.4537   48.0217 Du    107  UNL107      0.0000
    108 XX         11.7986   -4.4537   46.0217 Du    108  UNL108      0.0000
@<TRIPOS>BOND
